/*--------------------------------*- C++ -*----------------------------------*\
| =========                 |                                                 |
| \\      /  F ield         | foam-extend: Open Source CFD                    |
|  \\    /   O peration     | Version:     3.1                                |
|   \\  /    A nd           | Web:         http://www.extend-project.de       |
|    \\/     M anipulation  |                                                 |
\*---------------------------------------------------------------------------*/
FoamFile
{
    version     2.0;
    format      ascii;
    class       polyBoundaryMesh;
    location    "constant/polyMesh";
    object      boundary;
}
// * * * * * * * * * * * * * * * * * * * * * * * * * * * * * * * * * * * * * //

5
(
    structureBottom
    {
        type            patch;
        nFaces          261;
        startFace       102357;
    }
    seabed
    {
        type            patch;
        nFaces          432;
        startFace       102618;
    }
    bottom
    {
        type            patch;
        nFaces          612;
        startFace       103050;
    }
    sides
    {
        type            patch;
        nFaces          1800;
        startFace       103662;
    }
    defaultFaces
    {
        type            patch;
        nFaces          81;
        startFace       105462;
    }
)

// ************************************************************************* //
