FoamFile 
{ 
    version     2.0; 
    format      ascii; 
    class       scalarAverageField; 
    object      values; 
} 
// **********************************************************************// 
0.0 
    
934  
(   
0.00 
0.00 
44189.75 
44189.75 
0.00 
0.00 
44189.75 
44189.75 
0.00 
0.00 
44189.75 
44189.75 
0.00 
0.00 
44189.75 
44189.75 
0.00 
0.00 
44189.75 
44189.75 
0.00 
0.00 
44189.75 
44189.75 
0.00 
0.00 
44189.75 
44189.75 
0.00 
0.00 
0.00 
137969.30 
137969.30 
137969.30 
137969.30 
137969.30 
137969.30 
137969.30 
137969.30 
137969.30 
137969.30 
137969.30 
137969.30 
137969.30 
137969.30 
137969.30 
137969.30 
137969.30 
137969.30 
137969.30 
137969.30 
137969.30 
137969.30 
137969.30 
137969.30 
137969.30 
137969.30 
137969.30 
137969.30 
137969.30 
137969.30 
137969.30 
137969.30 
137969.30 
137969.30 
137969.30 
137969.30 
137969.30 
137969.30 
137969.30 
137969.30 
137969.30 
137969.30 
137969.30 
137969.30 
137969.30 
137969.30 
137969.30 
137969.30 
137969.30 
137969.30 
137969.30 
137969.30 
137969.30 
137969.30 
137969.30 
137969.30 
137969.30 
137969.30 
137969.30 
137969.30 
137969.30 
137969.30 
137969.30 
137969.30 
137969.30 
137969.30 
137969.30 
137969.30 
137969.30 
137969.30 
137969.30 
137969.30 
137969.30 
137969.30 
137969.30 
137969.30 
137969.30 
137969.30 
137969.30 
137969.30 
137969.30 
137969.30 
137969.30 
137969.30 
137969.30 
137969.30 
137969.30 
137969.30 
137969.30 
137969.30 
137969.30 
137969.30 
137969.30 
137969.30 
137969.30 
137969.30 
137969.30 
137969.30 
137969.30 
137969.30 
137969.30 
137969.30 
137969.30 
137969.30 
137969.30 
137969.30 
137969.30 
137969.30 
137969.30 
137969.30 
137969.30 
137969.30 
137969.30 
137969.30 
137969.30 
137969.30 
137969.30 
137969.30 
137969.30 
137969.30 
137969.30 
137969.30 
137969.30 
137969.30 
137969.30 
137969.30 
137969.30 
137969.30 
137969.30 
137969.30 
137969.30 
137969.30 
137969.30 
137969.30 
137969.30 
137969.30 
137969.30 
137969.30 
137969.30 
137969.30 
137969.30 
137969.30 
137969.30 
137969.30 
137969.30 
137969.30 
137969.30 
137969.30 
137969.30 
137969.30 
137969.30 
137969.30 
137969.30 
137969.30 
137969.30 
137969.30 
137969.30 
137969.30 
137969.30 
137969.30 
137969.30 
137969.30 
137969.30 
137969.30 
137969.30 
137969.30 
137969.30 
137969.30 
137969.30 
137969.30 
137969.30 
137969.30 
137969.30 
137969.30 
137969.30 
137969.30 
137969.30 
137969.30 
137969.30 
137969.30 
137969.30 
137969.30 
137969.30 
137969.30 
137969.30 
137969.30 
137969.30 
137969.30 
137969.30 
137969.30 
137969.30 
137969.30 
137969.30 
137969.30 
137969.30 
137969.30 
137969.30 
137969.30 
137969.30 
137969.30 
137969.30 
137969.30 
137969.30 
137969.30 
137969.30 
137969.30 
137969.30 
137969.30 
137969.30 
137969.30 
137969.30 
137969.30 
137969.30 
137969.30 
137969.30 
137969.30 
137969.30 
137969.30 
137969.30 
137969.30 
137969.30 
137969.30 
137969.30 
137969.30 
137969.30 
137969.30 
137969.30 
137969.30 
137969.30 
137969.30 
137969.30 
137969.30 
137969.30 
137969.30 
137969.30 
137969.30 
137969.30 
137969.30 
137969.30 
137969.30 
137969.30 
137969.30 
137969.30 
137969.30 
137969.30 
137969.30 
137969.30 
137969.30 
137969.30 
137969.30 
137969.30 
137969.30 
137969.30 
137969.30 
137969.30 
137969.30 
137969.30 
137969.30 
137969.30 
137969.30 
137969.30 
137969.30 
137969.30 
137969.30 
137969.30 
137969.30 
137969.30 
137969.30 
137969.30 
137969.30 
137969.30 
137969.30 
137969.30 
137969.30 
137969.30 
137969.30 
137969.30 
137969.30 
137969.30 
137969.30 
137969.30 
137969.30 
137969.30 
137969.30 
137969.30 
137969.30 
137969.30 
137969.30 
137969.30 
137969.30 
137969.30 
137969.30 
137969.30 
137969.30 
137969.30 
137969.30 
137969.30 
137969.30 
137969.30 
137969.30 
137969.30 
137969.30 
137969.30 
137969.30 
137969.30 
137969.30 
137969.30 
137969.30 
137969.30 
137969.30 
137969.30 
137969.30 
137969.30 
137969.30 
137969.30 
137969.30 
137969.30 
137969.30 
137969.30 
137969.30 
137969.30 
137969.30 
137969.30 
137969.30 
137969.30 
137969.30 
137969.30 
137969.30 
137969.30 
137969.30 
137969.30 
137969.30 
137969.30 
137969.30 
137969.30 
137969.30 
137969.30 
137969.30 
137969.30 
137969.30 
137969.30 
137969.30 
137969.30 
137969.30 
137969.30 
137969.30 
137969.30 
137969.30 
137969.30 
137969.30 
137969.30 
137969.30 
137969.30 
137969.30 
137969.30 
137969.30 
137969.30 
137969.30 
137969.30 
137969.30 
137969.30 
137969.30 
137969.30 
137969.30 
137969.30 
137969.30 
137969.30 
137969.30 
137969.30 
137969.30 
137969.30 
137969.30 
137969.30 
137969.30 
137969.30 
137969.30 
137969.30 
137969.30 
137969.30 
137969.30 
137969.30 
137969.30 
137969.30 
137969.30 
137969.30 
137969.30 
137969.30 
137969.30 
137969.30 
137969.30 
137969.30 
137969.30 
137969.30 
137969.30 
137969.30 
137969.30 
137969.30 
137969.30 
137969.30 
137969.30 
137969.30 
137969.30 
137969.30 
137969.30 
137969.30 
137969.30 
137969.30 
137969.30 
137969.30 
137969.30 
137969.30 
137969.30 
137969.30 
137969.30 
137969.30 
137969.30 
137969.30 
137969.30 
137969.30 
137969.30 
137969.30 
137969.30 
137969.30 
137969.30 
137969.30 
137969.30 
137969.30 
137969.30 
137969.30 
137969.30 
137969.30 
137969.30 
137969.30 
137969.30 
137969.30 
137969.30 
0.00 
0.00 
44189.75 
44189.75 
0.00 
0.00 
44189.75 
44189.75 
0.00 
0.00 
44189.75 
44189.75 
0.00 
0.00 
44189.75 
44189.75 
0.00 
0.00 
44189.75 
44189.75 
0.00 
0.00 
44189.75 
44189.75 
0.00 
0.00 
44189.75 
44189.75 
0.00 
0.00 
0.00 
137969.30 
137969.30 
137969.30 
137969.30 
137969.30 
137969.30 
137969.30 
137969.30 
137969.30 
137969.30 
137969.30 
137969.30 
137969.30 
137969.30 
137969.30 
137969.30 
137969.30 
137969.30 
137969.30 
137969.30 
137969.30 
137969.30 
137969.30 
137969.30 
137969.30 
137969.30 
137969.30 
137969.30 
137969.30 
137969.30 
137969.30 
137969.30 
137969.30 
137969.30 
137969.30 
137969.30 
137969.30 
137969.30 
137969.30 
137969.30 
137969.30 
137969.30 
137969.30 
137969.30 
137969.30 
137969.30 
137969.30 
137969.30 
137969.30 
137969.30 
137969.30 
137969.30 
137969.30 
137969.30 
137969.30 
137969.30 
137969.30 
137969.30 
137969.30 
137969.30 
137969.30 
137969.30 
137969.30 
137969.30 
137969.30 
137969.30 
137969.30 
137969.30 
137969.30 
137969.30 
137969.30 
137969.30 
137969.30 
137969.30 
137969.30 
137969.30 
137969.30 
137969.30 
137969.30 
137969.30 
137969.30 
137969.30 
137969.30 
137969.30 
137969.30 
137969.30 
137969.30 
137969.30 
137969.30 
137969.30 
137969.30 
137969.30 
137969.30 
137969.30 
137969.30 
137969.30 
137969.30 
137969.30 
137969.30 
137969.30 
137969.30 
137969.30 
137969.30 
137969.30 
137969.30 
137969.30 
137969.30 
137969.30 
137969.30 
137969.30 
137969.30 
137969.30 
137969.30 
137969.30 
137969.30 
137969.30 
137969.30 
137969.30 
137969.30 
137969.30 
137969.30 
137969.30 
137969.30 
137969.30 
137969.30 
137969.30 
137969.30 
137969.30 
137969.30 
137969.30 
137969.30 
137969.30 
137969.30 
137969.30 
137969.30 
137969.30 
137969.30 
137969.30 
137969.30 
137969.30 
137969.30 
137969.30 
137969.30 
137969.30 
137969.30 
137969.30 
137969.30 
137969.30 
137969.30 
137969.30 
137969.30 
137969.30 
137969.30 
137969.30 
137969.30 
137969.30 
137969.30 
137969.30 
137969.30 
137969.30 
137969.30 
137969.30 
137969.30 
137969.30 
137969.30 
137969.30 
137969.30 
137969.30 
137969.30 
137969.30 
137969.30 
137969.30 
137969.30 
137969.30 
137969.30 
137969.30 
137969.30 
137969.30 
137969.30 
137969.30 
137969.30 
137969.30 
137969.30 
137969.30 
137969.30 
137969.30 
137969.30 
137969.30 
137969.30 
137969.30 
137969.30 
137969.30 
137969.30 
137969.30 
137969.30 
137969.30 
137969.30 
137969.30 
137969.30 
137969.30 
137969.30 
137969.30 
137969.30 
137969.30 
137969.30 
137969.30 
137969.30 
137969.30 
137969.30 
137969.30 
137969.30 
137969.30 
137969.30 
137969.30 
137969.30 
137969.30 
137969.30 
137969.30 
137969.30 
137969.30 
137969.30 
137969.30 
137969.30 
137969.30 
137969.30 
137969.30 
137969.30 
137969.30 
137969.30 
137969.30 
137969.30 
137969.30 
137969.30 
137969.30 
137969.30 
137969.30 
137969.30 
137969.30 
137969.30 
137969.30 
137969.30 
137969.30 
137969.30 
137969.30 
137969.30 
137969.30 
137969.30 
137969.30 
137969.30 
137969.30 
137969.30 
137969.30 
137969.30 
137969.30 
137969.30 
137969.30 
137969.30 
137969.30 
137969.30 
137969.30 
137969.30 
137969.30 
137969.30 
137969.30 
137969.30 
137969.30 
137969.30 
137969.30 
137969.30 
137969.30 
137969.30 
137969.30 
137969.30 
137969.30 
137969.30 
137969.30 
137969.30 
137969.30 
137969.30 
137969.30 
137969.30 
137969.30 
137969.30 
137969.30 
137969.30 
137969.30 
137969.30 
137969.30 
137969.30 
137969.30 
137969.30 
137969.30 
137969.30 
137969.30 
137969.30 
137969.30 
137969.30 
137969.30 
137969.30 
137969.30 
137969.30 
137969.30 
137969.30 
137969.30 
137969.30 
137969.30 
137969.30 
137969.30 
137969.30 
137969.30 
137969.30 
137969.30 
137969.30 
137969.30 
137969.30 
137969.30 
137969.30 
137969.30 
137969.30 
137969.30 
137969.30 
137969.30 
137969.30 
137969.30 
137969.30 
137969.30 
137969.30 
137969.30 
137969.30 
137969.30 
137969.30 
137969.30 
137969.30 
137969.30 
137969.30 
137969.30 
137969.30 
137969.30 
137969.30 
137969.30 
137969.30 
137969.30 
137969.30 
137969.30 
137969.30 
137969.30 
137969.30 
137969.30 
137969.30 
137969.30 
137969.30 
137969.30 
137969.30 
137969.30 
137969.30 
137969.30 
137969.30 
137969.30 
137969.30 
137969.30 
137969.30 
137969.30 
137969.30 
137969.30 
137969.30 
137969.30 
137969.30 
137969.30 
137969.30 
137969.30 
137969.30 
137969.30 
137969.30 
137969.30 
137969.30 
137969.30 
137969.30 
137969.30 
137969.30 
137969.30 
137969.30 
137969.30 
137969.30 
137969.30 
137969.30 
137969.30 
137969.30 
137969.30 
137969.30 
137969.30 
137969.30 
137969.30 
137969.30 
137969.30 
137969.30 
137969.30 
137969.30 
137969.30 
137969.30 
137969.30 
137969.30 
137969.30 
137969.30 
137969.30 
137969.30 
137969.30 
137969.30 
137969.30 
137969.30 
137969.30 
137969.30 
137969.30 
137969.30 
137969.30 
137969.30 
137969.30 
137969.30 
137969.30 
137969.30 
137969.30 
137969.30 
137969.30 
137969.30 
137969.30 
137969.30 
137969.30 
137969.30 
137969.30 
137969.30 
137969.30 
137969.30 
137969.30 
137969.30 
137969.30 
137969.30 
137969.30 
);  
// foundation_pressure// time = 0.00 

