/*--------------------------------*- C++ -*----------------------------------*\
| =========                 |                                                 |
| \\      /  F ield         | foam-extend: Open Source CFD                    |
|  \\    /   O peration     | Version:     3.1                                |
|   \\  /    A nd           | Web:         http://www.extend-project.de       |
|    \\/     M anipulation  |                                                 |
\*---------------------------------------------------------------------------*/
FoamFile
{
    version     2.0;
    format      ascii;
    class       volScalarField;
    location    "30.5";
    object      p;
}
// * * * * * * * * * * * * * * * * * * * * * * * * * * * * * * * * * * * * * //

dimensions      [1 -1 -2 0 0 0 0];

internalField   uniform 0;

boundaryField
{
    seabed
    {

        type            fixedValue;
        value           uniform 0;  //the static watere pressure term is cancelled in our governing equation for consolidation, therefore no need to add here. 
    }
   sides
    {
        type            zeroGradient;
    }
    
    structureBottom
    {
           type            fixedValue;
        value           uniform 55194; //calculated pressure from the structure weight
    }
    bottom
    {
        type            zeroGradient;
    }
	defaultFaces
   {
        type            zeroGradient;
    }
}


// ************************************************************************* //
