/*--------------------------------*- C++ -*----------------------------------*\
| =========                 |                                                 |
| \\      /  F ield         | OpenFOAM: The Open Source CFD Toolbox           |
|  \\    /   O peration     | Version:  1.7.1                                 |
|   \\  /    A nd           | Web:      www.OpenFOAM.com                      |
|    \\/     M anipulation  |                                                 |
\*---------------------------------------------------------------------------*/
FoamFile
{
    version     2.0;
    format      ascii;
    class       dictionary;
    location    "system";
    object      controlDict;
}
// * * * * * * * * * * * * * * * * * * * * * * * * * * * * * * * * * * * * * //

application     anisoUpLiqueFoam;  

startFrom       latestTime;

startTime	30.5;

stopAt          endTime;

endTime         106;

deltaT          0.25;

writeControl    timeStep;

writeInterval   2;

purgeWrite      60;

writeFormat     ascii;

writePrecision  6;

writeCompression uncompressed;

timeFormat      general;

timePrecision   6;

graphFormat     raw;

runTimeModifiable yes;

nonlinearity nonLinear;

wave standingWave;

libs ( /*"libSoilFvPatchFields.so"*/ "libOpenFOAM.so" "libgroovyBC.so");


// ************************************************************************* //
