/*--------------------------------*- C++ -*----------------------------------*\
| =========                 |                                                 |
| \\      /  F ield         | OpenFOAM: The Open Source CFD Toolbox           |
|  \\    /   O peration     | Version:  1.7.1                                 |
|   \\  /    A nd           | Web:      www.OpenFOAM.com                      |
|    \\/     M anipulation  |                                                 |
\*---------------------------------------------------------------------------*/
FoamFile
{
    version     2.0;
    format      ascii;
    class       dictionary;
    location    "system";
    object      sampleDict;
}
// * * * * * * * * * * * * * * * * * * * * * * * * * * * * * * * * * * * * * //

interpolationScheme cellPoint;

setFormat       raw;

surfaceFormat foamFile;

sets
(
 	points_x30
	{
	  type cloud;
	  axis xyz;
         // points ((0 0 -8.65)(0 0 -11.6)(0 0 -14.6));
	  points ((29.999 0 0)(29.999 0 -0.05)(29.999 0 -0.1)(29.999 0 -0.15)(29.999 0 -0.2)(29.999 0 -0.25)(29.999 0 -0.3)(29.999 0 -0.35)(29.999 0 -0.4)(29.999 0 -0.45));
       }  

       points_x0.1pi
	{
	  type cloud;
	  axis xyz;
         // points ((0 0 -8.65)(0 0 -11.6)(0 0 -14.6));
	  points ((29.865 0 0)(29.865 0 -0.05)(29.865 0 -0.1)(29.865 0 -0.15)(29.865 0 -0.2)(29.865 0 -0.25)(29.865 0 -0.3)(29.865 0 -0.35)(29.865 0 -0.4)(29.865 0 -0.45));
       }

       points_x0.2pi
	{
	  type cloud;
	  axis xyz;
         // points ((0 0 -8.65)(0 0 -11.6)(0 0 -14.6));
	  points ((29.73 0 0)(29.73 0 -0.05)(29.73 0 -0.1)(29.73 0 -0.15)(29.73 0 -0.2)(29.73 0 -0.25)(29.73 0 -0.3)(29.73 0 -0.35)(29.73 0 -0.4)(29.73 0 -0.45)); 
         }  

      points_x0.3pi
	{
	  type cloud;
	  axis xyz;
         // points ((0 0 -8.65)(0 0 -11.6)(0 0 -14.6));
	  points ((29.595 0 0)(29.595 0 -0.05)(29.595 0 -0.1)(29.595 0 -0.15)(29.595 0 -0.2)(29.595 0 -0.25)(29.595 0 -0.3)(29.595 0 -0.35)(29.595 0 -0.4)(29.595 0 -0.45)); 
         } 

      points_x0.4pi
	{
	  type cloud;
	  axis xyz;
         // points ((0 0 -8.65)(0 0 -11.6)(0 0 -14.6));
	  points ((29.46 0 0)(29.46 0 -0.05)(29.46 0 -0.1)(29.46 0 -0.15)(29.46 0 -0.2)(29.46 0 -0.25)(29.46 0 -0.3)(29.46 0 -0.35)(29.46 0 -0.4)(29.46 0 -0.45)); 
         } 

      points_x0.5pi
	{
	  type cloud;
	  axis xyz;
         // points ((0 0 -8.65)(0 0 -11.6)(0 0 -14.6));
	  points ((29.325 0 0)(29.325 0 -0.05)(29.325 0 -0.1)(29.325 0 -0.15)(29.325 0 -0.2)(29.325 0 -0.25)(29.325 0 -0.3)(29.325 0 -0.35)(29.325 0 -0.4)(29.325 0 -0.45)); 
         } 
);

surfaces (
 // seabedPressure
  //  {
   //  type patch;
   //  patchName seabed;
   //  interpolate true;
   // }
  //structuralStress
  //  {
   //  type patch;
   //  patchName structureSurface;
   //  interpolate true;
   // }

);
fields          ( p ); // sigma_S);


// ************************************************************************* //
