/*--------------------------------*- C++ -*----------------------------------*\
| =========                 |                                                 |
| \\      /  F ield         | OpenFOAM: The Open Source CFD Toolbox           |
|  \\    /   O peration     | Version:  1.7.1                                 |
|   \\  /    A nd           | Web:      www.OpenFOAM.com                      |
|    \\/     M anipulation  |                                                 |
\*---------------------------------------------------------------------------*/
FoamFile
{
    version     2.0;
    format      ascii;
    class       dictionary;
    location    "constant";
    object      materialProperties;
}
// * * * * * * * * * * * * * * * * * * * * * * * * * * * * * * * * * * * * * //

rho_w           rho_w [ 1 -3 0 0 0 0 0 ] 1000;
rho_s           rho_s [ 1 -3 0 0 0 0 0 ] 2650;
gravity		gravity [ 0 1 -2  0 0 ] (0 0 9.81);

  Ex             6.86e7;
  Ey             6.86e7;
  Ez             6.86e7;
  nuxy           0.3;
  nuyz           0.3;
  nuzx           0.3;

  Gxy           2.64e7;  
  Gyz           2.64e7;
  Gzx           2.64e7; // para1

kx               kx [ 0 1 -1 0 0 0 0 ] 0.0006;
ky               ky [ 0 1 -1 0 0 0 0 ] 0.00012;
kz               kz [ 0 1 -1 0 0 0 0 ] 0.00012;



K               K [ 1 -1 -2 0 0 0 0 ] 2e9;

Sr           	Sr [ 0 0 0 0 0 0 0 ] 0.98;

p0           	p0 [ 1 -1 -2 0 0 0 0 ] 1e5;

gamma_w           gamma_w [ 1 -2 -2 0 0 0 0 ] 1e4;
gamma_s           gamma_s [ 1 -2 -2 0 0 0 0 ] 2.65e4;

K0          K0 [ 0 0 0 0 0 0 0 ] 0.5;

n           	n [ 0 0 0 0 0 0 0 ] 0.38;


// ************************************************************************* //
