/*--------------------------------*- C++ -*----------------------------------*\
| =========                 |                                                 |
| \\      /  F ield         | OpenFOAM: The Open Source CFD Toolbox           |
|  \\    /   O peration     | Version:  2.2.0                                 |
|   \\  /    A nd           | Web:      www.OpenFOAM.org                      |
|    \\/     M anipulation  |                                                 |
\*---------------------------------------------------------------------------*/
FoamFile
{
    version     2.0;
    format      ascii;
    class       dictionary;
    location    "system";
    object      sampleDict;
}
// * * * * * * * * * * * * * * * * * * * * * * * * * * * * * * * * * * * * * //

interpolationScheme cellPoint;

setFormat       raw;
surfaceFormat   foamFile;

sets
(   
);

surfaces
(
  waveBottomPressure
    {
     type patch;
     patches ( ".*seabed.*" );
     interpolate true;
    }
  waveStructurePressure
    {
     type patch;
     patches         ( ".*structuretop.*" );
     interpolate true;
    }
);

fields          ( p );

// ************************************************************************* //
