/*--------------------------------*- C++ -*----------------------------------*\
| =========                 |                                                 |
| \\      /  F ield         | OpenFOAM Extend Project: Open Source CFD        |
|  \\    /   O peration     | Version:  1.6-ext                               |
|   \\  /    A nd           | Web:      www.extend-project.de                 |
|    \\/     M anipulation  |                                                 |
\*---------------------------------------------------------------------------*/
FoamFile
{
    version     2.0;
    format      ascii;
    class       volVectorField;
    location    "0";
    object      U;
}
// * * * * * * * * * * * * * * * * * * * * * * * * * * * * * * * * * * * * * //

dimensions      [0 1 0 0 0 0 0];

internalField   uniform (0 0 0);

boundaryField
{
    structure
      {
	//type            timeVaryingMappedFixedValue;
       // setAverage off;
       type            timeVaryingMappedTotalTraction;
      
   //type fixedValue;
//value uniform (0 0 0);	
       /* type            poroTractionOrtho;
        traction uniform (0 0 0);
        pressure      uniform  0;
        value uniform (0 0 0);*/
      }

    bottom
      {
	type            slip;
      }

    sides
      {
	type            slip;
      }

    seabed
      {
	type            tractionOrtho;
        traction uniform (0 0 0);
        pressure      uniform  0;
        value uniform (0 0 0);	
      }

}

// ************************************************************************* //
