/*--------------------------------*- C++ -*----------------------------------*\
| =========                 |                                                 |
| \\      /  F ield         | OpenFOAM: The Open Source CFD Toolbox           |
|  \\    /   O peration     | Version:  1.7.1                                 |
|   \\  /    A nd           | Web:      www.OpenFOAM.com                      |
|    \\/     M anipulation  |                                                 |
\*---------------------------------------------------------------------------*/
FoamFile
{
    version     2.0;
    format      ascii;
    class       dictionary;
    location    "system";
    object      sampleDict;
}
// * * * * * * * * * * * * * * * * * * * * * * * * * * * * * * * * * * * * * //

interpolationScheme cellPoint;

setFormat       raw;

surfaceFormat foamFile;

sets
(
 	pressureAlongz_center
	{
	  type cloud;
	  axis xyz;
          points ((0 0 -8)(0 0 -8.6)(0 0 -8.9)(0 0 -9.2)(0 0 -9.61)(0 0 -10.61)(0 0 -11.61)(0 0 -12.61)(0 0 -13.61)(0 0 -14.61)(0 0 -15.61)(0 0 -16.61)(0 0 -17.61)(0 0 -18));
	  //points ((0 8.225 -8)(0 8.225 -8.2)(0 8.225 -8.4)(0 8.225 -8.6)(0 8.225 -8.85)(0 8.225 -9.1)(0 8.225 -9.6)(0 8.225 -10.6)(0 8.225 -11.6)(0 8.225 -12.6)(0 8.225 -13.6)(0 8.225 -14.6)(0 8.225 -15.6)(0 8.225 -16.6)(0 8.225 -17.6)(0 8.225 -18.6));
         // points ((0 0 -8.65)(-9.6 0 -8.65)(9.6 0 -8.65));
       }  

 	pressurex_minus9.51
	{
	  type cloud;
	  axis xyz;
          points ((-9.51 0 -8)(-9.51 0 -8.6)(-9.51 0 -8.9)(-9.51 0 -9.2)(-9.51 0 -9.61)(-9.51 0 -10.61)(-9.51 0 -11.61)(-9.51 0 -12.61)(-9.51 0 -13.61)(-9.51 0 -14.61)(-9.51 0 -15.61)(-9.51 0 -16.61)(-9.51 0 -17.61)(-9.51 0 -18));
	  //points ((0 8.225 -8)(0 8.225 -8.2)(0 8.225 -8.4)(0 8.225 -8.6)(0 8.225 -8.85)(0 8.225 -9.1)(0 8.225 -9.6)(0 8.225 -10.6)(0 8.225 -11.6)(0 8.225 -12.6)(0 8.225 -13.6)(0 8.225 -14.6)(0 8.225 -15.6)(0 8.225 -16.6)(0 8.225 -17.6)(0 8.225 -18.6));
         // points ((0 0 -8.65)(-9.6 0 -8.65)(9.6 0 -8.65));
       } 

 	pressurex_plus9.51
	{
	  type cloud;
	  axis xyz;
          points ((9.51 0 -8)(9.51 0 -8.6)(9.51 0 -8.9)(9.51 0 -9.2)(9.51 0 -9.61)(9.51 0 -10.61)(9.51 0 -11.61)(9.51 0 -12.61)(9.51 0 -13.61)(9.51 0 -14.61)(9.51 0 -15.61)(9.51 0 -16.61)(9.51 0 -17.61)(9.51 0 -18));
	  //points ((0 8.225 -8)(0 8.225 -8.2)(0 8.225 -8.4)(0 8.225 -8.6)(0 8.225 -8.85)(0 8.225 -9.1)(0 8.225 -9.6)(0 8.225 -10.6)(0 8.225 -11.6)(0 8.225 -12.6)(0 8.225 -13.6)(0 8.225 -14.6)(0 8.225 -15.6)(0 8.225 -16.6)(0 8.225 -17.6)(0 8.225 -18.6));
         // points ((0 0 -8.65)(-9.6 0 -8.65)(9.6 0 -8.65));
       } 

pressurex_yplus15
	{
	  type cloud;
	  axis xyz;
          points ((0 15 -8)(0 15 -8.6)(0 15 -8.9)(0 15 -9.2)(0 15 -9.61)(0 15 -10.61)(0 15 -11.61)(0 15 -12.61)(0 15 -13.61)(0 15 -14.61)(0 15 -15.61)(0 15 -16.61)(0 15 -17.61)(0 15 -18));
	  //points ((0 8.225 -8)(0 8.225 -8.2)(0 8.225 -8.4)(0 8.225 -8.6)(0 8.225 -8.85)(0 8.225 -9.1)(0 8.225 -9.6)(0 8.225 -10.6)(0 8.225 -11.6)(0 8.225 -12.6)(0 8.225 -13.6)(0 8.225 -14.6)(0 8.225 -15.6)(0 8.225 -16.6)(0 8.225 -17.6)(0 8.225 -18.6));
         // points ((0 0 -8.65)(-9.6 0 -8.65)(9.6 0 -8.65));
       } 

pressurex_90degree
	{
	  type cloud;
	  axis xyz;
          points ((0 8.225 -8)(0 8.225 -8.6)(0 8.225 -8.9)(0 8.225 -9.2)(0 8.225 -9.61)(0 8.225 -10.61)(0 8.225 -11.61)(0 8.225 -12.61)(0 8.225 -13.61)(0 8.225 -14.61)(0 8.225 -15.61)(0 8.225 -16.61)(0 8.225 -17.61)(0 8.225 -18));
	  //points ((0 8.225 -8)(0 8.225 -8.2)(0 8.225 -8.4)(0 8.225 -8.6)(0 8.225 -8.85)(0 8.225 -9.1)(0 8.225 -9.6)(0 8.225 -10.6)(0 8.225 -11.6)(0 8.225 -12.6)(0 8.225 -13.6)(0 8.225 -14.6)(0 8.225 -15.6)(0 8.225 -16.6)(0 8.225 -17.6)(0 8.225 -18.6));
         // points ((0 0 -8.65)(-9.6 0 -8.65)(9.6 0 -8.65));
       } 
);

surfaces (
 // seabedPressure
  //  {
   //  type patch;
   //  patchName seabed;
   //  interpolate true;
   // }
  //structuralStress
  //  {
   //  type patch;
   //  patchName structureSurface;
   //  interpolate true;
   // }

);
fields          ( p ); // sigma_S);


// ************************************************************************* //
