/*--------------------------------*- C++ -*----------------------------------*\
| =========                 |                                                 |
| \\      /  F ield         | OpenFOAM: The Open Source CFD Toolbox           |
|  \\    /   O peration     | Version:  1.7.1                                 |
|   \\  /    A nd           | Web:      www.OpenFOAM.com                      |
|    \\/     M anipulation  |                                                 |
\*---------------------------------------------------------------------------*/
FoamFile
{
    version     2.0;
    format      ascii;
    class       dictionary;
    location    "system";
    object      sampleDict;
}
// * * * * * * * * * * * * * * * * * * * * * * * * * * * * * * * * * * * * * //

interpolationScheme cellPoint;

setFormat       raw;

surfaceFormat foamFile;

sets
(
 	x15
	{
	  type cloud;
	  axis xyz;
	  points ((15 -3 0)(15 -3.1 0)(15 -3.2 0)(15 -3.25 0)(15 -3.5 0)(15 -3.75 0)(15 -4 -0.6)(15 -4.25 -0.6)(15 -4.5 0));
       }  

  

  
);

surfaces (
 // seabedPressure
  //  {
   //  type patch;
   //  patchName seabed;
   //  interpolate true;
   // }
  //structuralStress
  //  {
   //  type patch;
   //  patchName structureSurface;
   //  interpolate true;
   // }

);
fields          ( p U); // sigma_S);


// ************************************************************************* //
